feeders/123Bus/ieee123_Curr_Seq.Txt

SYMMETRICAL COMPONENT CURRENTS BY CIRCUIT ELEMENT (first 3 phases)

Element             Term      I1         I2         %I2/I1    I0         %I0/I1   %Normal %Emergency

"VSOURCE.SOURCE" ..   1      762.37       210.97    27.67      58.948     7.73      0.00     0.00
   -                  2      762.37       210.97    27.67      58.948     7.73      0.00     0.00
"TRANSFORMER.REG1A"   1      762.37       210.97    27.67      58.948     7.73    125.39    91.95
   -                  2      734.81       203.34    27.67      56.817     7.73      0.00     0.00
"LINE.L115" .......   1      528.83       69.165    13.08      56.817    10.74    160.94   107.29
   -                  2      528.83       69.165    13.08      56.817    10.74      0.00     0.00
"LINE.L1" .........   1      9.6449            0     0.00           0     0.00      2.41     1.61
   -                  2      9.6451            0     0.00           0     0.00      0.00     0.00
"LINE.L2" .........   1      47.807            0     0.00           0     0.00     11.95     7.97
   -                  2      47.807            0     0.00           0     0.00      0.00     0.00
"LINE.L3" .........   1       503.5       68.886    13.68      56.426    11.21    156.18   104.12
   -                  2       503.5       68.886    13.68      56.427    11.21      0.00     0.00
"LINE.L4" .........   1      19.137            0     0.00           0     0.00      4.78     3.19
   -                  2      19.137            0     0.00           0     0.00      0.00     0.00
"LINE.L5" .........   1       28.67            0     0.00           0     0.00      7.17     4.78
   -                  2      28.671            0     0.00           0     0.00      0.00     0.00
"LINE.L6" .........   1      19.109            0     0.00           0     0.00      4.78     3.18
   -                  2       19.11            0     0.00           0     0.00      0.00     0.00
"LINE.L7" .........   1      500.37       65.805    13.15      53.358    10.66    153.83   102.55
   -                  2      500.37       65.805    13.15      53.358    10.66      0.00     0.00
"LINE.L8" .........   1      9.6129            0     0.00           0     0.00      2.40     1.60
   -                  2      9.6131            0     0.00           0     0.00      0.00     0.00
"LINE.L9" .........   1      46.904            0     0.00           0     0.00     11.73     7.82
   -                  2      46.904            0     0.00           0     0.00      0.00     0.00
"LINE.L10" ........   1      481.73       53.027    11.01      40.873     8.48    142.19    94.79
   -                  2      481.73       53.027    11.01      40.873     8.48      0.00     0.00
"LINE.L11" ........   1      28.117            0     0.00           0     0.00      7.03     4.69
   -                  2      28.117            0     0.00           0     0.00      0.00     0.00
"LINE.L12" ........   1      47.146            0     0.00           0     0.00     11.79     7.86
   -                  2      47.146            0     0.00           0     0.00      0.00     0.00
"LINE.L13" ........   1      179.42       26.947    15.02      20.775    11.58     56.69    37.79
   -                  2      179.43       26.947    15.02      20.775    11.58      0.00     0.00
"LINE.L14" ........   1      18.743            0     0.00           0     0.00      4.69     3.12
   -                  2      18.743            0     0.00           0     0.00      0.00     0.00
"LINE.L15" ........   1      9.3744            0     0.00           0     0.00      2.34     1.56
   -                  2      9.3746            0     0.00           0     0.00      0.00     0.00
"LINE.L16" ........   1      18.846            0     0.00           0     0.00      4.71     3.14
   -                  2      18.846            0     0.00           0     0.00      0.00     0.00
"LINE.L17" ........   1      9.4278            0     0.00           0     0.00      2.36     1.57
   -                  2      9.4281            0     0.00           0     0.00      0.00     0.00
"LINE.L18" ........   1      36.928            0     0.00           0     0.00      9.23     6.15
   -                  2      36.928            0     0.00           0     0.00      0.00     0.00
"LINE.L19" ........   1      43.632       12.629    28.94      11.927    27.34     14.00     9.34
   -                  2      43.632       12.629    28.94      11.927    27.33      0.00     0.00
"LINE.L20" ........   1      18.456            0     0.00           0     0.00      4.61     3.08
   -                  2      18.456            0     0.00           0     0.00      0.00     0.00
"LINE.L21" ........   1       19.08            0     0.00           0     0.00      4.77     3.18
   -                  2       19.08            0     0.00           0     0.00      0.00     0.00
"LINE.L22" ........   1      37.272       18.988    50.94      18.287    49.06     14.00     9.34
   -                  2      37.273       18.988    50.94      18.287    49.06      0.00     0.00
"LINE.L23" ........   1      18.682            0     0.00           0     0.00      4.67     3.11
   -                  2      18.683            0     0.00           0     0.00      0.00     0.00
"LINE.L24" ........   1      31.046        16.68    53.73      16.149    52.02     13.95     9.30
   -                  2      31.046        16.68    53.73      16.149    52.02      0.00     0.00
"LINE.L25" ........   1       18.66            0     0.00           0     0.00      4.67     3.11
   -                  2      18.661            0     0.00           0     0.00      0.00     0.00
"LINE.L26" ........   1      18.526       10.791    58.25      10.523    56.80      9.23     6.15
   -                  2      18.527       10.791    58.25      10.523    56.80      0.00     0.00
"LINE.L27" ........   1      18.661            0     0.00           0     0.00      4.67     3.11
   -                  2      18.661            0     0.00           0     0.00      0.00     0.00
"LINE.L28" ........   1      18.669            0     0.00           0     0.00      4.67     3.11
   -                  2      18.669            0     0.00           0     0.00      0.00     0.00
"LINE.L29" ........   1      18.661            0     0.00           0     0.00      4.67     3.11
   -                  2      18.661            0     0.00           0     0.00      0.00     0.00
"LINE.L30" ........   1      12.374        6.304    50.95      6.0712    49.07      4.67     3.11
   -                  2      12.374       6.3041    50.95      6.0712    49.06      0.00     0.00
"LINE.L31" ........   1      6.2226       6.2232   100.01      6.2233   100.01      4.67     3.11
   -                  2      6.2231       6.2233   100.00      6.2233   100.00      0.00     0.00
"LINE.L32" ........   1  0.00063248   7.1287E-005    11.27  1.9519E-005     3.09      0.00     0.00
   -                  2  3.2002E-012   2.2976E-013     7.18  7.9056E-012   247.04      0.00     0.00
"LINE.L33" ........   1      9.3326            0     0.00           0     0.00      2.33     1.56
   -                  2      9.3329            0     0.00           0     0.00      0.00     0.00
"LINE.L34" ........   1      28.274            0     0.00           0     0.00      7.07     4.71
   -                  2      28.274            0     0.00           0     0.00      0.00     0.00
"LINE.L35" ........   1      18.413            0     0.00           0     0.00      4.60     3.07
   -                  2      18.414            0     0.00           0     0.00      0.00     0.00
"LINE.L36" ........   1      105.06       3.6834     3.51      3.6178     3.44     27.48    18.32
   -                  2      105.06       3.6835     3.51      3.6178     3.44      0.00     0.00
"LINE.L37" ........   1      18.414            0     0.00           0     0.00      4.60     3.07
   -                  2      18.414            0     0.00           0     0.00      0.00     0.00
"LINE.L38" ........   1       19.03            0     0.00           0     0.00      4.76     3.17
   -                  2      19.031            0     0.00           0     0.00      0.00     0.00
"LINE.L39" ........   1      9.5131            0     0.00           0     0.00      2.38     1.59
   -                  2      9.5134            0     0.00           0     0.00      0.00     0.00
"LINE.L40" ........   1       9.353            0     0.00           0     0.00      2.34     1.56
   -                  2      9.3533            0     0.00           0     0.00      0.00     0.00
"LINE.L41" ........   1      101.96       6.7758     6.65      6.3487     6.23     27.48    18.32
   -                  2      101.96       6.7759     6.65      6.3487     6.23      0.00     0.00
"LINE.L42" ........   1      18.987            0     0.00           0     0.00      4.75     3.16
   -                  2      18.988            0     0.00           0     0.00      0.00     0.00
"LINE.L43" ........   1      92.635       4.0076     4.33      1.3263     1.43     24.45    16.30
   -                  2      92.636       4.0077     4.33      1.3263     1.43      0.00     0.00
"LINE.L44" ........   1      18.355            0     0.00           0     0.00      4.59     3.06
   -                  2      18.355            0     0.00           0     0.00      0.00     0.00
"LINE.L45" ........   1      86.559        2.122     2.45      5.0537     5.84     22.79    15.19
   -                  2       86.56        2.122     2.45      5.0537     5.84      0.00     0.00
"LINE.L46" ........   1      9.1758            0     0.00           0     0.00      2.29     1.53
   -                  2       9.176            0     0.00           0     0.00      0.00     0.00
"LINE.L47" ........   1      35.837      0.28951     0.81     0.49826     1.39      9.11     6.07
   -                  2      35.838      0.28962     0.81     0.49832     1.39      0.00     0.00
"LINE.L48" ........   1      32.838       1.6894     5.14      4.4525    13.56      9.12     6.08
   -                  2      32.838       1.6896     5.15      4.4526    13.56      0.00     0.00
"LINE.L49" ........   1      9.2729       5.4414    58.68      5.3289    57.47      4.66     3.11
   -                  2      9.2732       5.4413    58.68      5.3288    57.46      0.00     0.00
"LINE.L50" ........   1       3.056       3.0575   100.05      3.0571   100.04      2.29     1.53
   -                  2      3.0564       3.0574   100.03      3.0571   100.02      0.00     0.00
"LINE.L51" ........   1   0.0014004   0.00042506    30.35  0.00019244    13.74      0.00     0.00
   -                  2  3.5424E-008   1.9346E-008    54.61  1.9284E-008    54.44      0.00     0.00
"LINE.L52" ........   1      287.95       25.633     8.90      18.723     6.50     82.26    54.84
   -                  2      287.95       25.633     8.90      18.723     6.50      0.00     0.00
"LINE.L53" ........   1      282.09       19.629     6.96      12.601     4.47     77.80    51.87
   -                  2      282.09       19.629     6.96      12.601     4.47      0.00     0.00
"LINE.L54" ........   1      6.2625       3.0832    49.23      3.1829    50.83      2.39     1.59
   -                  2      6.2628       3.0832    49.23      3.1829    50.82      0.00     0.00
"LINE.L55" ........   1      276.13       19.184     6.95      11.862     4.30     75.58    50.39
   -                  2      276.13       19.183     6.95      11.862     4.30      0.00     0.00
"LINE.L56" ........   1      3.1873       3.1877   100.01      3.1877   100.01      2.39     1.59
   -                  2      3.1877       3.1877   100.00      3.1877   100.00      0.00     0.00
"LINE.L57" ........   1      19.058            0     0.00           0     0.00      4.76     3.18
   -                  2      19.059            0     0.00           0     0.00      0.00     0.00
"LINE.L58" ........   1      270.09       24.644     9.12      17.312     6.41     75.58    50.39
   -                  2      270.09       24.644     9.12      17.312     6.41      0.00     0.00
"LINE.L59" ........   1      9.5277            0     0.00           0     0.00      2.38     1.59
   -                  2      9.5279            0     0.00           0     0.00      0.00     0.00
"LINE.L60" ........   1   0.0017113   0.00019001    11.10  4.0377E-005     2.36      0.00     0.00
   -                  2  1.386E-005   1.6745E-007     1.21  1.4986E-007     1.08      0.00     0.00
"LINE.L61" ........   1      58.737       12.994    22.12      9.6634    16.45     19.98    13.32
   -                  2      58.741       12.994    22.12      9.6635    16.45      0.00     0.00
"LINE.L62" ........   1       52.56       6.8045    12.95      5.4221    10.32     15.34    10.22
   -                  2      52.563       6.8045    12.95      5.4222    10.32      0.00     0.00
"LINE.L63" ........   1       46.49       11.219    24.13      11.468    24.67     15.34    10.22
   -                  2      46.495       11.219    24.13      11.468    24.66      0.00     0.00
"LINE.L64" ........   1      34.914       15.935    45.64      11.371    32.57     15.34    10.22
   -                  2      34.921       15.935    45.63      11.371    32.56      0.00     0.00
"LINE.L65" ........   1      11.367       11.372   100.04      11.371   100.04      8.53     5.69
   -                  2      11.372       11.372   100.00      11.372   100.00      0.00     0.00
"LINE.L66" ........   1      57.863            0     0.00           0     0.00     14.47     9.64
   -                  2      57.863            0     0.00           0     0.00      0.00     0.00
"LINE.L67" ........   1      130.52       6.2095     4.76      10.567     8.10     34.56    23.04
   -                  2      130.52       6.2096     4.76      10.567     8.10      0.00     0.00
"LINE.L68" ........   1      70.533       8.5691    12.15      8.1131    11.50     21.58    14.39
   -                  2      70.533        8.569    12.15      8.1131    11.50      0.00     0.00
"LINE.L69" ........   1      48.196            0     0.00           0     0.00     12.05     8.03
   -                  2      48.196            0     0.00           0     0.00      0.00     0.00
"LINE.L70" ........   1      28.897            0     0.00           0     0.00      7.22     4.82
   -                  2      28.897            0     0.00           0     0.00      0.00     0.00
"LINE.L71" ........   1       19.26            0     0.00           0     0.00      4.82     3.21
   -                  2      19.261            0     0.00           0     0.00      0.00     0.00
"LINE.L72" ........   1      57.569            0     0.00           0     0.00     14.39     9.59
   -                  2      57.569            0     0.00           0     0.00      0.00     0.00
"LINE.L73" ........   1      117.21       18.572    15.84      14.052    11.99     33.06    22.04
   -                  2      117.21       18.572    15.84      14.052    11.99      0.00     0.00
"LINE.L74" ........   1      38.349            0     0.00           0     0.00      9.59     6.39
   -                  2      38.349            0     0.00           0     0.00      0.00     0.00
"LINE.L75" ........   1      19.164            0     0.00           0     0.00      4.79     3.19
   -                  2      19.165            0     0.00           0     0.00      0.00     0.00
"LINE.L76" ........   1      77.719      0.42447     0.55     0.88602     1.14     19.51    13.01
   -                  2      77.718      0.42433     0.55     0.88598     1.14      0.00     0.00
"LINE.L77" ........   1      37.581       13.839    36.82      14.263    37.95     15.29    10.20
   -                  2      37.581       13.839    36.82      14.263    37.95      0.00     0.00
"LINE.L78" ........   1      77.915       6.6929     8.59      7.0675     9.07     20.10    13.40
   -                  2      77.915       6.6929     8.59      7.0675     9.07      0.00     0.00
"LINE.L79" ........   1      6.4628       6.4632   100.01      6.4632   100.01      4.85     3.23
   -                  2      6.4632       6.4632   100.00      6.4632   100.00      0.00     0.00
"LINE.L80" ........   1      78.811       6.1133     7.76       6.368     8.08     20.10    13.40
   -                  2      78.809       6.1135     7.76       6.368     8.08      0.00     0.00
"LINE.L81" ........   1      80.068       11.064    13.82      11.566    14.44     21.79    14.53
   -                  2      80.067       11.064    13.82      11.566    14.44      0.00     0.00
"LINE.L82" ........   1      82.876       5.9612     7.19      6.4934     7.84     21.79    14.53
   -                  2      82.875       5.9612     7.19      6.4934     7.84      0.00     0.00
"LINE.L83" ........   1      28.862            0     0.00           0     0.00      7.22     4.81
   -                  2      28.863            0     0.00           0     0.00      0.00     0.00
"LINE.L84" ........   1      85.465       2.8314     3.31      3.4547     4.04     21.79    14.53
   -                  2      85.464       2.8315     3.31      3.4547     4.04      0.00     0.00
"LINE.L85" ........   1      19.234            0     0.00           0     0.00      4.81     3.21
   -                  2      19.234            0     0.00           0     0.00      0.00     0.00
"LINE.L86" ........   1      34.836       10.969    31.49      11.389    32.69     13.02     8.68
   -                  2      34.836       10.969    31.49      11.389    32.69      0.00     0.00
"LINE.L87" ........   1      21.599            0     0.00           0     0.00      5.40     3.60
   -                  2      21.598            0     0.00           0     0.00      0.00     0.00
"LINE.L88" ........   1      23.134      0.97625     4.22      12.164    52.58      8.71     5.81
   -                  2      23.134      0.97631     4.22      12.164    52.58      0.00     0.00
"LINE.L89" ........   1      21.599            0     0.00           0     0.00      5.40     3.60
   -                  2      21.599            0     0.00           0     0.00      0.00     0.00
"LINE.L90" ........   1      17.274       7.2063    41.72      7.3181    42.37      5.39     3.60
   -                  2      17.274       7.2062    41.72      7.3181    42.37      0.00     0.00
"LINE.L91" ........   1      21.578            0     0.00           0     0.00      5.39     3.60
   -                  2      21.578            0     0.00           0     0.00      0.00     0.00
"LINE.L92" ........   1      12.874       6.3219    49.11       6.553    50.90      4.83     3.22
   -                  2      12.874       6.3218    49.10       6.553    50.90      0.00     0.00
"LINE.L93" ........   1      19.306            0     0.00           0     0.00      4.83     3.22
   -                  2      19.306            0     0.00           0     0.00      0.00     0.00
"LINE.L94" ........   1      6.4396         6.44   100.01        6.44   100.01      4.83     3.22
   -                  2        6.44         6.44   100.00        6.44   100.00      0.00     0.00
"LINE.L95" ........   1      9.6587            0     0.00           0     0.00      2.41     1.61
   -                  2      9.6589            0     0.00           0     0.00      0.00     0.00
"LINE.L96" ........   1       19.32      0.11986     0.62     0.21154     1.09      4.85     3.23
   -                  2       19.32       0.1198     0.62     0.21157     1.10      0.00     0.00
"LINE.L97" ........   1      12.875       6.4528    50.12      6.4242    49.90      4.85     3.23
   -                  2      12.876        6.453    50.12      6.4242    49.89      0.00     0.00
"LINE.L98" ........   1      6.4106       6.4122   100.03      6.4123   100.03      4.81     3.21
   -                  2       6.411       6.4122   100.02      6.4123   100.02      0.00     0.00
"LINE.L99" ........   1   0.0026095   0.00031964    12.25  6.8275E-005     2.62      0.00     0.00
   -                  2  4.0585E-012   1.5691E-012    38.66  2.1862E-012    53.87      0.00     0.00
"LINE.L118" .......   1      51.214       8.5288    16.65      8.1417    15.90     16.75    11.17
   -                  2      51.214       8.5287    16.65      8.1417    15.90      0.00     0.00
"LINE.L100" .......   1      47.934            0     0.00           0     0.00     11.98     7.99
   -                  2      47.934            0     0.00           0     0.00      0.00     0.00
"LINE.L101" .......   1      35.238       19.027    54.00      19.808    56.21     16.75    11.17
   -                  2      35.238       19.027    54.00      19.808    56.21      0.00     0.00
"LINE.L102" .......   1      38.327            0     0.00           0     0.00      9.58     6.39
   -                  2      38.327            0     0.00           0     0.00      0.00     0.00
"LINE.L103" .......   1      19.146            0     0.00           0     0.00      4.79     3.19
   -                  2      19.146            0     0.00           0     0.00      0.00     0.00
"LINE.L104" .......   1      38.739            0     0.00           0     0.00      9.68     6.46
   -                  2      38.739            0     0.00           0     0.00      0.00     0.00
"LINE.L105" .......   1      22.329       22.331   100.01      22.331   100.01     16.75    11.17
   -                  2      22.329       22.331   100.01      22.331   100.01      0.00     0.00
"LINE.L106" .......   1      19.354            0     0.00           0     0.00      4.84     3.23
   -                  2      19.355            0     0.00           0     0.00      0.00     0.00
"LINE.L107" .......   1      66.992            0     0.00           0     0.00     16.75    11.17
   -                  2      66.993            0     0.00           0     0.00      0.00     0.00
"LINE.L108" .......   1   0.0032598   0.00040249    12.35  8.2804E-005     2.54      0.00     0.00
   -                  2  6.2859E-013   3.9539E-013    62.90  1.438E-012   228.77      0.00     0.00
"LINE.L109" .......   1      47.797            0     0.00           0     0.00     11.95     7.97
   -                  2      47.797            0     0.00           0     0.00      0.00     0.00
"LINE.L110" .......   1      9.5712            0     0.00           0     0.00      2.39     1.60
   -                  2      9.5717            0     0.00           0     0.00      0.00     0.00
"LINE.L111" .......   1      38.226            0     0.00           0     0.00      9.56     6.37
   -                  2      38.226            0     0.00           0     0.00      0.00     0.00
"LINE.L112" .......   1      28.654            0     0.00           0     0.00      7.16     4.78
   -                  2      28.654            0     0.00           0     0.00      0.00     0.00
"LINE.L113" .......   1      9.5485            0     0.00           0     0.00      2.39     1.59
   -                  2      9.5488            0     0.00           0     0.00      0.00     0.00
"LINE.L114" .......   1      123.65       15.995    12.94      9.4802     7.67     34.69    23.13
   -                  2      123.65       15.995    12.94      9.4803     7.67      0.00     0.00
"LINE.L116" .......   1      293.84       31.712    10.79      24.884     8.47     86.75    57.83
   -                  2      293.85       31.712    10.79      24.884     8.47      0.00     0.00
"LINE.L117" .......   1       205.1       21.262    10.37        17.4     8.48     60.17    40.12
   -                  2       205.1       21.261    10.37        17.4     8.48      0.00     0.00
"LINE.SW1" ........   1      528.83       69.165    13.08      56.817    10.74    160.94   107.29
   -                  2      528.83       69.165    13.08      56.817    10.74      0.00     0.00
"LINE.SW2" ........   1      293.84       31.712    10.79      24.884     8.47     86.75    57.83
   -                  2      293.84       31.712    10.79      24.884     8.47      0.00     0.00
"LINE.SW3" ........   1      123.65       15.995    12.94      9.4802     7.67     34.69    23.13
   -                  2      123.65       15.995    12.94      9.4802     7.67      0.00     0.00
"LINE.SW4" ........   1      214.04       24.514    11.45      20.266     9.47     63.94    42.62
   -                  2      214.04       24.514    11.45      20.266     9.47      0.00     0.00
"LINE.SW5" ........   1      51.214       8.5288    16.65      8.1417    15.90     16.75    11.17
   -                  2      51.214       8.5288    16.65      8.1417    15.90      0.00     0.00
"LINE.SW6" ........   1  1.386E-005   8.7256E-008     0.63  1.6018E-007     1.16      0.00     0.00
   -                  2  1.386E-005   8.7256E-008     0.63  1.6018E-007     1.16      0.00     0.00
"LINE.SW7" ........   1           0            0     0.00           0     0.00      0.00     0.00
   -                  2           0            0     0.00           0     0.00      0.00     0.00
"LINE.SW8" ........   1           0            0     0.00           0     0.00      0.00     0.00
   -                  2           0            0     0.00           0     0.00      0.00     0.00
"TRANSFORMER.XFM1"    1  1.3854E-005   1.4697E-007     1.06  1.1123E-007     0.80      0.00     0.00
   -                  2  5.1254E-013   4.9275E-013    96.14  7.1501E-013   139.50      0.00     0.00
"CAPACITOR.C83" ...   1      86.838      0.48185     0.55     0.95427     1.10      0.00     0.00
   -                  2      86.838      0.48185     0.55     0.95427     1.10      0.00     0.00
"CAPACITOR.C88A" ..   1      21.584            0     0.00           0     0.00      0.00     0.00
   -                  2      21.584            0     0.00           0     0.00      0.00     0.00
"CAPACITOR.C90B" ..   1      21.584            0     0.00           0     0.00      0.00     0.00
   -                  2      21.584            0     0.00           0     0.00      0.00     0.00
"CAPACITOR.C92C" ..   1      21.563            0     0.00           0     0.00      0.00     0.00
   -                  2      21.563            0     0.00           0     0.00      0.00     0.00
"TRANSFORMER.REG2A"   1      28.117            0     0.00           0     0.00      3.07     2.25
   -                  2      28.117            0     0.00           0     0.00      0.00     0.00
"TRANSFORMER.REG3A"   1      18.893            0     0.00           0     0.00      2.06     1.51
   -                  2       18.66            0     0.00           0     0.00      0.00     0.00
"TRANSFORMER.REG4A"   1      255.74            0     0.00           0     0.00     27.92    20.48
   -                  2       240.7            0     0.00           0     0.00      0.00     0.00
"TRANSFORMER.REG3C"   1      18.668            0     0.00           0     0.00      2.04     1.49
   -                  2      18.668            0     0.00           0     0.00      0.00     0.00
"TRANSFORMER.REG4B"   1      185.77            0     0.00           0     0.00     20.28    14.87
   -                  2      181.24            0     0.00           0     0.00      0.00     0.00
"TRANSFORMER.REG4C"   1       201.4            0     0.00           0     0.00     21.99    16.13
   -                  2      194.12            0     0.00           0     0.00      0.00     0.00
"LOAD.S1A" ........   1      19.108            0     0.00           0     0.00      0.00     0.00
"LOAD.S2B" ........   1      9.6451            0     0.00           0     0.00      0.00     0.00
"LOAD.S4C" ........   1      19.137            0     0.00           0     0.00      0.00     0.00
"LOAD.S5C" ........   1      9.5611            0     0.00           0     0.00      0.00     0.00
"LOAD.S6C" ........   1       19.11            0     0.00           0     0.00      0.00     0.00
"LOAD.S7A" ........   1      9.4651            0     0.00           0     0.00      0.00     0.00
"LOAD.S9A" ........   1      18.787            0     0.00           0     0.00      0.00     0.00
"LOAD.S10A" .......   1      9.3746            0     0.00           0     0.00      0.00     0.00
"LOAD.S11A" .......   1      18.743            0     0.00           0     0.00      0.00     0.00
"LOAD.S12B" .......   1      9.6131            0     0.00           0     0.00      0.00     0.00
"LOAD.S16C" .......   1      18.846            0     0.00           0     0.00      0.00     0.00
"LOAD.S17C" .......   1      9.4281            0     0.00           0     0.00      0.00     0.00
"LOAD.S19A" .......   1      18.472            0     0.00           0     0.00      0.00     0.00
"LOAD.S20A" .......   1      18.456            0     0.00           0     0.00      0.00     0.00
"LOAD.S22B" .......   1       19.08            0     0.00           0     0.00      0.00     0.00
"LOAD.S24C" .......   1      18.683            0     0.00           0     0.00      0.00     0.00
"LOAD.S28A" .......   1       18.46            0     0.00           0     0.00      0.00     0.00
"LOAD.S29A" .......   1      18.457            0     0.00           0     0.00      0.00     0.00
"LOAD.S30C" .......   1       18.67            0     0.00           0     0.00      0.00     0.00
"LOAD.S31C" .......   1      9.3365            0     0.00           0     0.00      0.00     0.00
"LOAD.S32C" .......   1      9.3329            0     0.00           0     0.00      0.00     0.00
"LOAD.S33A" .......   1      18.661            0     0.00           0     0.00      0.00     0.00
"LOAD.S34C" .......   1      18.872            0     0.00           0     0.00      0.00     0.00
"LOAD.S35A" .......   1      10.755            0     0.00           0     0.00      0.00     0.00
"LOAD.S37A" .......   1      18.414            0     0.00           0     0.00      0.00     0.00
"LOAD.S38B" .......   1      9.5175            0     0.00           0     0.00      0.00     0.00
"LOAD.S39B" .......   1      9.5134            0     0.00           0     0.00      0.00     0.00
"LOAD.S41C" .......   1      9.3533            0     0.00           0     0.00      0.00     0.00
"LOAD.S42A" .......   1      9.1945            0     0.00           0     0.00      0.00     0.00
"LOAD.S43B" .......   1      18.988            0     0.00           0     0.00      0.00     0.00
"LOAD.S45A" .......   1      9.1797            0     0.00           0     0.00      0.00     0.00
"LOAD.S46A" .......   1       9.176            0     0.00           0     0.00      0.00     0.00
"LOAD.S47" ........   1      17.924      0.14434     0.81     0.24961     1.39      0.00     0.00
"LOAD.S48" ........   1      35.838      0.28962     0.81     0.49832     1.39      0.00     0.00
"LOAD.S49A" .......   1      17.644            0     0.00           0     0.00      0.00     0.00
"LOAD.S49B" .......   1      36.484            0     0.00           0     0.00      0.00     0.00
"LOAD.S49C" .......   1      16.819            0     0.00           0     0.00      0.00     0.00
"LOAD.S50C" .......   1      18.653            0     0.00           0     0.00      0.00     0.00
"LOAD.S51A" .......   1       9.171            0     0.00           0     0.00      0.00     0.00
"LOAD.S52A" .......   1      18.543            0     0.00           0     0.00      0.00     0.00
"LOAD.S53A" .......   1      18.489            0     0.00           0     0.00      0.00     0.00
"LOAD.S55A" .......   1      9.2273            0     0.00           0     0.00      0.00     0.00
"LOAD.S56B" .......   1      9.5632            0     0.00           0     0.00      0.00     0.00
"LOAD.S58B" .......   1       9.531            0     0.00           0     0.00      0.00     0.00
"LOAD.S59B" .......   1      9.5279            0     0.00           0     0.00      0.00     0.00
"LOAD.S60A" .......   1      9.1313            0     0.00           0     0.00      0.00     0.00
"LOAD.S62C" .......   1      18.575            0     0.00           0     0.00      0.00     0.00
"LOAD.S63A" .......   1      18.238            0     0.00           0     0.00      0.00     0.00
"LOAD.S64B" .......   1      34.976            0     0.00           0     0.00      0.00     0.00
"LOAD.S65A" .......   1      10.209            0     0.00           0     0.00      0.00     0.00
"LOAD.S65B" .......   1      10.373            0     0.00           0     0.00      0.00     0.00
"LOAD.S65C" .......   1       20.46            0     0.00           0     0.00      0.00     0.00
"LOAD.S66C" .......   1      34.115            0     0.00           0     0.00      0.00     0.00
"LOAD.S68A" .......   1      9.6671            0     0.00           0     0.00      0.00     0.00
"LOAD.S69A" .......   1      19.299            0     0.00           0     0.00      0.00     0.00
"LOAD.S70A" .......   1      9.6372            0     0.00           0     0.00      0.00     0.00
"LOAD.S71A" .......   1      19.261            0     0.00           0     0.00      0.00     0.00
"LOAD.S73C" .......   1       19.22            0     0.00           0     0.00      0.00     0.00
"LOAD.S74C" .......   1      19.185            0     0.00           0     0.00      0.00     0.00
"LOAD.S75C" .......   1      19.165            0     0.00           0     0.00      0.00     0.00
"LOAD.S76A" .......   1      32.733            0     0.00           0     0.00      0.00     0.00
"LOAD.S76B" .......   1      21.449            0     0.00           0     0.00      0.00     0.00
"LOAD.S76C" .......   1      21.575            0     0.00           0     0.00      0.00     0.00
"LOAD.S77B" .......   1      19.417            0     0.00           0     0.00      0.00     0.00
"LOAD.S79A" .......   1      19.389            0     0.00           0     0.00      0.00     0.00
"LOAD.S80B" .......   1      19.456            0     0.00           0     0.00      0.00     0.00
"LOAD.S82A" .......   1      19.464            0     0.00           0     0.00      0.00     0.00
"LOAD.S83C" .......   1      9.6695            0     0.00           0     0.00      0.00     0.00
"LOAD.S84C" .......   1      9.6292            0     0.00           0     0.00      0.00     0.00
"LOAD.S85C" .......   1      19.234            0     0.00           0     0.00      0.00     0.00
"LOAD.S86B" .......   1      9.6807            0     0.00           0     0.00      0.00     0.00
"LOAD.S87B" .......   1      19.345            0     0.00           0     0.00      0.00     0.00
"LOAD.S88A" .......   1      19.337            0     0.00           0     0.00      0.00     0.00
"LOAD.S90B" .......   1      19.338            0     0.00           0     0.00      0.00     0.00
"LOAD.S92C" .......   1      19.319            0     0.00           0     0.00      0.00     0.00
"LOAD.S94A" .......   1      19.306            0     0.00           0     0.00      0.00     0.00
"LOAD.S95B" .......   1      9.6614            0     0.00           0     0.00      0.00     0.00
"LOAD.S96B" .......   1      9.6589            0     0.00           0     0.00      0.00     0.00
"LOAD.S98A" .......   1      19.341            0     0.00           0     0.00      0.00     0.00
"LOAD.S99B" .......   1      19.395            0     0.00           0     0.00      0.00     0.00
"LOAD.S100C" ......   1      19.237            0     0.00           0     0.00      0.00     0.00
"LOAD.S102C" ......   1      9.6073            0     0.00           0     0.00      0.00     0.00
"LOAD.S103C" ......   1      19.182            0     0.00           0     0.00      0.00     0.00
"LOAD.S104C" ......   1      19.146            0     0.00           0     0.00      0.00     0.00
"LOAD.S106B" ......   1      19.384            0     0.00           0     0.00      0.00     0.00
"LOAD.S107B" ......   1      19.355            0     0.00           0     0.00      0.00     0.00
"LOAD.S109A" ......   1      19.196            0     0.00           0     0.00      0.00     0.00
"LOAD.S111A" ......   1      9.5717            0     0.00           0     0.00      0.00     0.00
"LOAD.S112A" ......   1      9.5727            0     0.00           0     0.00      0.00     0.00
"LOAD.S113A" ......   1      19.106            0     0.00           0     0.00      0.00     0.00
"LOAD.S114A" ......   1      9.5488            0     0.00           0     0.00      0.00     0.00
"FAULT.150R_12_39"    1      373.35            0     0.00           0     0.00      0.00     0.00
   -                  2      373.35            0     0.00           0     0.00      0.00     0.00
